10

 C  6.45651630741972404E-01  8.98276566060491333E-02  5.81716374732280800E-03
 C -7.35171499764266101E-01  7.45262239079649613E-01 -4.12030886799148732E-03
 O  6.06866357239605692E-01 -1.27566727845474870E+00 -1.33938521707307225E-02
 O  1.68629409928290608E+00  7.13840889452697303E-01  3.12637844179836852E-02
 N -1.93774925528679631E+00 -6.93414926226968154E-02  3.37991096788689332E-03
 H -1.97142683091340154E+00 -6.81571690243659933E-01 -8.11027861321940047E-01
 H -7.41214118768842911E-01  1.42423876065600030E+00  8.62322529474749078E-01
 H -1.96298600145866731E+00 -6.72082241387725765E-01  8.25702256683646385E-01
 H -7.41796390222388968E-01  1.40774933560512072E+00 -8.83424825324344298E-01
 H  1.54085700914987900E+00 -1.56703717869068271E+00 -1.65187976065813320E-02
